@<TRIPOS>MOLECULE
*****
 108 112 0 0 0
SMALL
GASTEIGER

@<TRIPOS>ATOM
      1 C          -9.0961    3.9034    0.1391 C.ar    1  UNL11      -0.0614
      2 C          -9.8669    2.8208   -0.3038 C.ar    1  UNL11      -0.0600
      3 C          -9.2892    1.5577   -0.4900 C.ar    1  UNL11      -0.0401
      4 C          -7.9355    1.3922   -0.2400 C.ar    1  UNL11       0.0376
      5 C          -7.1720    2.4830    0.2002 C.ar    1  UNL11      -0.0149
      6 C          -7.7386    3.7371    0.4036 C.ar    1  UNL11      -0.0559
      7 C          -5.7355    2.0255    0.4283 C.3     1  UNL11       0.0300
      8 N          -7.1328    0.2511   -0.3847 N.pl3   1  UNL11      -0.3056
      9 C          -5.7766    0.5651   -0.1685 C.2     1  UNL11       0.0206
     10 C          -4.7660    3.0282   -0.2094 C.3     1  UNL11      -0.0505
     11 C          -5.4941    1.9237    1.9459 C.3     1  UNL11      -0.0505
     12 C          -7.7726   -1.0444   -0.4915 C.3     1  UNL11       0.0055
     13 C          -4.7232   -0.2445   -0.4326 C.2     1  UNL11      -0.0434
     14 C          -3.3264    0.1446   -0.3906 C.2     1  UNL11      -0.0571
     15 C          -2.2161   -0.5849   -0.1592 C.2     1  UNL11      -0.0470
     16 C          -2.1835   -2.0577    0.1586 C.3     1  UNL11      -0.0274
     17 C          -0.9242    0.1104   -0.1508 C.2     1  UNL11      -0.0554
     18 C           0.2768   -0.4887   -0.0146 C.2     1  UNL11      -0.0470
     19 C          -0.9133   -2.7220   -0.3738 C.3     1  UNL11      -0.0451
     20 C           0.3651   -1.9973    0.0690 C.3     1  UNL11      -0.0274
     21 C           1.4914    0.3430    0.0338 C.2     1  UNL11      -0.0569
     22 C           2.7593   -0.0957    0.1017 C.2     1  UNL11      -0.0412
     23 C           4.0129    0.7345    0.0538 C.2     1  UNL11       0.0292
     24 C           4.0549    2.2904    0.0569 C.3     1  UNL11       0.0322
     25 N           5.2246    0.2310   -0.0086 N.2     1  UNL11      -0.3432
     26 C           3.2042    2.9590   -1.0271 C.3     1  UNL11      -0.0503
     27 C           3.7247    2.8355    1.4539 C.3     1  UNL11      -0.0503
     28 C           6.1795    1.2686   -0.1751 C.ar    1  UNL11       0.0461
     29 C           5.5213    2.4991   -0.2093 C.ar    1  UNL11      -0.0125
     30 C           7.5589    1.2351   -0.3174 C.ar    1  UNL11      -0.0379
     31 C           6.1995    3.6962   -0.4287 C.ar    1  UNL11      -0.0557
     32 C           8.2541    2.4346   -0.5371 C.ar    1  UNL11      -0.0598
     33 C           7.5775    3.6547   -0.6065 C.ar    1  UNL11      -0.0613
     34 C           5.5045   -1.2403    0.0299 C.3     1  UNL11       0.0236
     35 C           6.9297   -1.7773   -0.0102 C.3     1  UNL11      -0.0349
     36 C           6.9124   -3.3179    0.0610 C.3     1  UNL11      -0.0510
     37 C           8.3085   -3.9530    0.0094 C.3     1  UNL11      -0.0447
     38 C           8.2157   -5.4863    0.0619 C.3     1  UNL11       0.0240
     39 C           9.5697   -6.1774   -0.0007 C.2     1  UNL11       0.2130
     40 O          10.6309   -5.5714   -0.0505 O.2     1  UNL11      -0.2758
     41 N           9.4820   -7.5605    0.0094 N.am    1  UNL11      -0.3153
     42 C          10.6809   -8.3724   -0.0653 C.3     1  UNL11       0.0116
     43 C          10.4059   -9.8805   -0.0331 C.3     1  UNL11      -0.0374
     44 C          11.7256  -10.6599   -0.1031 C.3     1  UNL11      -0.0515
     45 C          11.5542  -12.1828   -0.0362 C.3     1  UNL11      -0.0482
     46 C          12.9261  -12.8722   -0.0754 C.3     1  UNL11      -0.0126
     47 C          12.8295  -14.3843    0.0764 C.3     1  UNL11      -0.0354
     48 N          14.2016  -14.9556    0.0860 N.4     1  UNL11       0.2185
     49 H          -9.5590    4.8776    0.2788 H       1  UNL11       0.0618
     50 H         -10.9251    2.9671   -0.5081 H       1  UNL11       0.0618
     51 H          -7.1478    4.5740    0.7603 H       1  UNL11       0.0621
     52 H          -3.7472    2.9052    0.1701 H       1  UNL11       0.0242
     53 H          -4.7527    2.9382   -1.3011 H       1  UNL11       0.0242
     54 H          -5.0275    4.0649    0.0286 H       1  UNL11       0.0242
     55 H          -6.2337    1.2730    2.4316 H       1  UNL11       0.0242
     56 H          -5.5626    2.9046    2.4292 H       1  UNL11       0.0242
     57 H          -4.5035    1.5102    2.1648 H       1  UNL11       0.0242
     58 H          -8.4976   -1.1835    0.3208 H       1  UNL11       0.0432
     59 H          -8.2998   -1.1443   -1.4461 H       1  UNL11       0.0432
     60 H          -7.0570   -1.8679   -0.4155 H       1  UNL11       0.0432
     61 H          -4.9160   -1.2499   -0.7965 H       1  UNL11       0.0633
     62 H          -3.1675    1.1842   -0.6434 H       1  UNL11       0.0621
     63 H          -3.0501   -2.5776   -0.2651 H       1  UNL11       0.0313
     64 H          -2.2292   -2.1868    1.2471 H       1  UNL11       0.0313
     65 H          -0.9765    1.1948   -0.2458 H       1  UNL11       0.0623
     66 H          -0.9505   -2.7494   -1.4710 H       1  UNL11       0.0272
     67 H          -0.8721   -3.7653   -0.0378 H       1  UNL11       0.0272
     68 H           1.1780   -2.3688   -0.5664 H       1  UNL11       0.0313
     69 H           0.6044   -2.2768    1.1025 H       1  UNL11       0.0313
     70 H           1.2830    1.4072   -0.0066 H       1  UNL11       0.0621
     71 H           2.9106   -1.1687    0.1527 H       1  UNL11       0.0635
     72 H           3.5847    3.9480   -1.3061 H       1  UNL11       0.0242
     73 H           2.1779    3.1306   -0.6884 H       1  UNL11       0.0242
     74 H           3.1595    2.3534   -1.9382 H       1  UNL11       0.0242
     75 H           4.3569    2.3769    2.2253 H       1  UNL11       0.0242
     76 H           3.8832    3.9194    1.5084 H       1  UNL11       0.0242
     77 H           2.6850    2.6347    1.7300 H       1  UNL11       0.0242
     78 H           5.0363   -1.6007    0.9548 H       1  UNL11       0.0492
     79 H           4.9530   -1.6686   -0.8157 H       1  UNL11       0.0492
     80 H           7.4196   -1.4895   -0.9463 H       1  UNL11       0.0282
     81 H           7.5105   -1.3948    0.8367 H       1  UNL11       0.0282
     82 H           6.3151   -3.7054   -0.7736 H       1  UNL11       0.0266
     83 H           6.4117   -3.6298    0.9858 H       1  UNL11       0.0266
     84 H           8.9139   -3.5883    0.8484 H       1  UNL11       0.0270
     85 H           8.8231   -3.6447   -0.9091 H       1  UNL11       0.0270
     86 H           7.6133   -5.8463   -0.7802 H       1  UNL11       0.0358
     87 H           7.7241   -5.7929    0.9924 H       1  UNL11       0.0358
     88 H           8.5729   -8.0046    0.0083 H       1  UNL11       0.1487
     89 H          11.2073   -8.1030   -0.9883 H       1  UNL11       0.0462
     90 H          11.3249   -8.0877    0.7751 H       1  UNL11       0.0462
     91 H           9.7600  -10.1606   -0.8741 H       1  UNL11       0.0280
     92 H           9.8647  -10.1404    0.8847 H       1  UNL11       0.0280
     93 H          12.3704  -10.3400    0.7248 H       1  UNL11       0.0266
     94 H          12.2472  -10.3998   -1.0325 H       1  UNL11       0.0266
     95 H          10.9412  -12.5289   -0.8769 H       1  UNL11       0.0267
     96 H          11.0288  -12.4566    0.8863 H       1  UNL11       0.0267
     97 H          13.5551  -12.4676    0.7276 H       1  UNL11       0.0317
     98 H          13.4259  -12.6305   -1.0220 H       1  UNL11       0.0317
     99 H          12.3628  -14.6726    1.0226 H       1  UNL11       0.0813
    100 H          12.2972  -14.8510   -0.7573 H       1  UNL11       0.0813
    101 H          14.1820  -15.9740    0.2338 H       1  UNL11       0.1994
    102 H          14.6930  -14.7883   -0.8026 H       1  UNL11       0.1994
    103 H          14.7788  -14.5539    0.8377 H       1  UNL11       0.1994
    104 H          -9.9046    0.7391   -0.8452 H       1  UNL11       0.0636
    105 H           8.1656    0.3437   -0.2719 H       1  UNL1        0.0638
    106 H           9.3376    2.4210   -0.6580 H       1  UNL1        0.0618
    107 H           8.1328    4.5745   -0.7889 H       1  UNL1        0.0618
    108 H           5.6814    4.6523   -0.4619 H       1  UNL1        0.0621
@<TRIPOS>BOND
     1     1     2   ar
     2     1     6   ar
     3     1    49    1
     4     2     3   ar
     5     2    50    1
     6     3     4   ar
     7     4     5   ar
     8     4     8    1
     9     5     6   ar
    10     5     7    1
    11     6    51    1
    12     7     9    1
    13     7    10    1
    14     7    11    1
    15     8     9    1
    16     8    12    1
    17     9    13    2
    18    10    52    1
    19    10    53    1
    20    10    54    1
    21    11    55    1
    22    11    56    1
    23    11    57    1
    24    12    58    1
    25    12    59    1
    26    12    60    1
    27    13    14    1
    28    13    61    1
    29    14    15    2
    30    14    62    1
    31    15    16    1
    32    15    17    1
    33    16    19    1
    34    16    63    1
    35    16    64    1
    36    17    18    2
    37    17    65    1
    38    18    20    1
    39    18    21    1
    40    19    20    1
    41    19    66    1
    42    19    67    1
    43    20    68    1
    44    20    69    1
    45    21    22    2
    46    21    70    1
    47    22    23    1
    48    22    71    1
    49    23    24    1
    50    23    25    2
    51    24    26    1
    52    24    27    1
    53    24    29    1
    54    25    28    1
    55    25    34    1
    56    26    72    1
    57    26    73    1
    58    26    74    1
    59    27    75    1
    60    27    76    1
    61    27    77    1
    62    28    29   ar
    63    28    30   ar
    64    29    31   ar
    65    30    32   ar
    66    31    33   ar
    67    32    33   ar
    68    34    35    1
    69    34    78    1
    70    34    79    1
    71    35    36    1
    72    35    80    1
    73    35    81    1
    74    36    37    1
    75    36    82    1
    76    36    83    1
    77    37    38    1
    78    37    84    1
    79    37    85    1
    80    38    39    1
    81    38    86    1
    82    38    87    1
    83    39    40    2
    84    39    41   am
    85    41    42    1
    86    41    88    1
    87    42    43    1
    88    42    89    1
    89    42    90    1
    90    43    44    1
    91    43    91    1
    92    43    92    1
    93    44    45    1
    94    44    93    1
    95    44    94    1
    96    45    46    1
    97    45    95    1
    98    45    96    1
    99    46    47    1
   100    46    97    1
   101    46    98    1
   102    47    48    1
   103    47    99    1
   104    47   100    1
   105    48   101    1
   106    48   102    1
   107    48   103    1
   108     3   104    1
   109    30   105    1
   110    32   106    1
   111    33   107    1
   112    31   108    1
