@<TRIPOS>MOLECULE
*****
 120 126 0 0 0
SMALL
GASTEIGER

@<TRIPOS>ATOM
      1 C          -8.9254    4.1661    0.5213 C.ar    1  UNL111     -0.0175
      2 C          -9.7055    3.0886    0.0580 C.ar    1  UNL111     -0.0523
      3 C          -9.1422    1.8371   -0.2085 C.ar    1  UNL111     -0.0395
      4 C          -7.7814    1.6600   -0.0340 C.ar    1  UNL111      0.0382
      5 C          -6.9818    2.7336    0.4049 C.ar    1  UNL111     -0.0072
      6 C          -7.5340    3.9986    0.7188 C.ar    1  UNL111     -0.0121
      7 C          -5.5240    2.2614    0.4347 C.3     1  UNL111      0.0306
      8 N          -7.0180    0.5059   -0.2524 N.pl3   1  UNL111     -0.3055
      9 C          -5.6550    0.7713   -0.0779 C.2     1  UNL111      0.0206
     10 C          -4.6768    3.1445   -0.5035 C.3     1  UNL111     -0.0505
     11 C          -5.0027    2.2445    1.8838 C.3     1  UNL111     -0.0505
     12 C          -7.6689   -0.7198   -0.6708 C.3     1  UNL111      0.0055
     13 C          -4.6405   -0.1004   -0.2789 C.2     1  UNL111     -0.0434
     14 C          -3.2374    0.2328   -0.2023 C.2     1  UNL111     -0.0571
     15 C          -2.1654   -0.5563   -0.0104 C.2     1  UNL111     -0.0470
     16 C          -2.1780   -2.0437    0.2250 C.3     1  UNL111     -0.0274
     17 C          -0.8611    0.0951    0.0130 C.2     1  UNL111     -0.0554
     18 C           0.3178   -0.5500    0.0766 C.2     1  UNL111     -0.0470
     19 C          -0.9440   -2.7122   -0.3818 C.3     1  UNL111     -0.0451
     20 C           0.3626   -2.0614    0.0941 C.3     1  UNL111     -0.0274
     21 C           1.5334    0.2616    0.0933 C.2     1  UNL111     -0.0569
     22 C           2.7953   -0.1842    0.0832 C.2     1  UNL111     -0.0412
     23 C           4.0235    0.6734    0.0141 C.2     1  UNL111      0.0292
     24 C           4.0308    2.2263   -0.0158 C.3     1  UNL111      0.0328
     25 N           5.2358    0.1936   -0.0646 N.2     1  UNL111     -0.3432
     26 C           3.2582    2.7515   -1.2368 C.3     1  UNL111     -0.0503
     27 C           3.5239    2.7818    1.3229 C.3     1  UNL111     -0.0503
     28 C           6.1757    1.2471   -0.1883 C.ar    1  UNL111      0.0467
     29 C           5.5149    2.4842   -0.1695 C.ar    1  UNL111     -0.0048
     30 C           7.5516    1.2030   -0.3248 C.ar    1  UNL111     -0.0373
     31 C           6.2134    3.7136   -0.2848 C.ar    1  UNL111     -0.0119
     32 C           8.2630    2.4021   -0.4505 C.ar    1  UNL111     -0.0521
     33 C           7.6184    3.6489   -0.4357 C.ar    1  UNL111     -0.0175
     34 C           5.5109   -1.2737   -0.0642 C.3     1  UNL111      0.0236
     35 C           6.9267   -1.8140   -0.0536 C.3     1  UNL111     -0.0349
     36 C           6.8826   -3.3488    0.0448 C.3     1  UNL111     -0.0510
     37 C           8.2751   -3.9752    0.0089 C.3     1  UNL111     -0.0447
     38 C           8.1927   -5.5028    0.0689 C.3     1  UNL111      0.0240
     39 C           9.5624   -6.1518    0.0335 C.2     1  UNL111      0.2130
     40 O          10.6103   -5.5154    0.0348 O.2     1  UNL111     -0.2758
     41 N           9.5109   -7.5320    0.0115 N.am    1  UNL111     -0.3153
     42 C          10.7328   -8.2977   -0.1125 C.3     1  UNL111      0.0116
     43 C          10.4909   -9.8016   -0.0045 C.3     1  UNL111     -0.0374
     44 C          11.8120  -10.5701   -0.0887 C.3     1  UNL111     -0.0515
     45 C          11.6109  -12.0844    0.0095 C.3     1  UNL111     -0.0482
     46 C          12.9546  -12.8189   -0.0374 C.3     1  UNL111     -0.0126
     47 C          12.7755  -14.3258    0.0840 C.3     1  UNL111     -0.0354
     48 N          14.1078  -14.9776    0.0563 N.4     1  UNL111      0.2185
     49 H         -10.7748    3.2196   -0.0974 H       1  UNL111      0.0624
     50 H          -3.6376    3.2136   -0.1658 H       1  UNL111      0.0242
     51 H          -4.6784    2.7587   -1.5298 H       1  UNL111      0.0242
     52 H          -5.0286    4.1768   -0.5714 H       1  UNL111      0.0242
     53 H          -5.6418    1.6285    2.5297 H       1  UNL111      0.0242
     54 H          -4.9658    3.2412    2.3296 H       1  UNL111      0.0242
     55 H          -3.9886    1.8366    1.9480 H       1  UNL111      0.0242
     56 H          -8.4703   -0.9911    0.0265 H       1  UNL111      0.0432
     57 H          -8.0971   -0.6104   -1.6731 H       1  UNL111      0.0432
     58 H          -6.9821   -1.5705   -0.6972 H       1  UNL111      0.0432
     59 H          -4.8665   -1.1203   -0.5707 H       1  UNL111      0.0633
     60 H          -3.0313    1.2843   -0.3489 H       1  UNL111      0.0621
     61 H          -3.0742   -2.5119   -0.1951 H       1  UNL111      0.0313
     62 H          -2.1927   -2.2295    1.3066 H       1  UNL111      0.0313
     63 H          -0.8769    1.1841   -0.0311 H       1  UNL111      0.0623
     64 H          -0.9997   -2.6510   -1.4769 H       1  UNL111      0.0272
     65 H          -0.9347   -3.7785   -0.1267 H       1  UNL111      0.0272
     66 H           1.1639   -2.4351   -0.5536 H       1  UNL111      0.0313
     67 H           0.5865   -2.3932    1.1158 H       1  UNL111      0.0313
     68 H           1.3332    1.3278    0.0955 H       1  UNL111      0.0621
     69 H           2.9461   -1.2580    0.0887 H       1  UNL111      0.0635
     70 H           3.5752    3.7483   -1.5524 H       1  UNL111      0.0242
     71 H           2.1851    2.8296   -1.0441 H       1  UNL111      0.0242
     72 H           3.3878    2.0924   -2.1035 H       1  UNL111      0.0242
     73 H           4.0835    2.3563    2.1654 H       1  UNL111      0.0242
     74 H           3.6187    3.8687    1.3889 H       1  UNL111      0.0242
     75 H           2.4699    2.5501    1.4965 H       1  UNL111      0.0242
     76 H           5.0051   -1.6650    0.8278 H       1  UNL111      0.0492
     77 H           4.9952   -1.6735   -0.9467 H       1  UNL111      0.0492
     78 H           7.4427   -1.5482   -0.9823 H       1  UNL111      0.0282
     79 H           7.4890   -1.4230    0.8014 H       1  UNL111      0.0282
     80 H           6.2846   -3.7484   -0.7838 H       1  UNL111      0.0266
     81 H           6.3776   -3.6406    0.9741 H       1  UNL111      0.0266
     82 H           8.8706   -3.6002    0.8503 H       1  UNL111      0.0270
     83 H           8.7945   -3.6705   -0.9081 H       1  UNL111      0.0270
     84 H           7.6107   -5.8770   -0.7816 H       1  UNL111      0.0358
     85 H           7.6916   -5.8146    0.9928 H       1  UNL111      0.0358
     86 H           8.6252   -7.9802   -0.1868 H       1  UNL111      0.1487
     87 H          11.1834   -8.0499   -1.0805 H       1  UNL111      0.0462
     88 H          11.4233   -7.9620    0.6702 H       1  UNL111      0.0462
     89 H           9.8174  -10.1257   -0.8076 H       1  UNL111      0.0280
     90 H           9.9862  -10.0293    0.9425 H       1  UNL111      0.0280
     91 H          12.4748  -10.2385    0.7200 H       1  UNL111      0.0266
     92 H          12.3140  -10.3306   -1.0342 H       1  UNL111      0.0266
     93 H          10.9740  -12.4266   -0.8151 H       1  UNL111      0.0267
     94 H          11.0911  -12.3275    0.9440 H       1  UNL111      0.0267
     95 H          13.5957  -12.4574    0.7764 H       1  UNL111      0.0317
     96 H          13.4679  -12.5819   -0.9777 H       1  UNL111      0.0317
     97 H          12.3048  -14.6073    1.0305 H       1  UNL111      0.0813
     98 H          12.2019  -14.7389   -0.7508 H       1  UNL111      0.0813
     99 H          14.0233  -15.9997    0.1420 H       1  UNL111      0.1994
    100 H          14.6095  -14.7879   -0.8218 H       1  UNL111      0.1994
    101 H          14.7063  -14.6583    0.8302 H       1  UNL111      0.1994
    102 H          -9.7790    1.0339   -0.5610 H       1  UNL111      0.0636
    103 C          -9.5209    5.4117    0.7858 C.ar    1  UNL1       -0.0540
    104 C          -8.7682    6.4877    1.2561 C.ar    1  UNL1       -0.0612
    105 C          -7.4072    6.3329    1.4731 C.ar    1  UNL1       -0.0612
    106 C          -6.7991    5.1053    1.2076 C.ar    1  UNL1       -0.0537
    107 H          -9.2467    7.4429    1.4545 H       1  UNL1        0.0618
    108 H         -10.5874    5.5549    0.6254 H       1  UNL1        0.0624
    109 H          -6.8143    7.1640    1.8457 H       1  UNL1        0.0618
    110 H          -5.7317    5.0315    1.3882 H       1  UNL1        0.0624
    111 H           8.1455    0.3024   -0.3484 H       1  UNL1        0.0638
    112 H           9.3475    2.3572   -0.5636 H       1  UNL1        0.0624
    113 C           5.6182    4.9979   -0.2659 C.ar    1  UNL1       -0.0537
    114 C           6.3773    6.1622   -0.4050 C.ar    1  UNL1       -0.0612
    115 C           7.7527    6.0770   -0.5607 C.ar    1  UNL1       -0.0612
    116 C           8.3690    4.8281   -0.5727 C.ar    1  UNL1       -0.0540
    117 H           4.5467    5.1287   -0.1472 H       1  UNL1        0.0624
    118 H           5.8918    7.1361   -0.3934 H       1  UNL1        0.0618
    119 H           8.3467    6.9817   -0.6716 H       1  UNL1        0.0618
    120 H           9.4507    4.7888   -0.6937 H       1  UNL1        0.0624
@<TRIPOS>BOND
     1     1     2   ar
     2     1     6   ar
     3     2     3   ar
     4     2    49    1
     5     3     4   ar
     6     4     5   ar
     7     4     8    1
     8     5     6   ar
     9     5     7    1
    10     7     9    1
    11     7    10    1
    12     7    11    1
    13     8     9    1
    14     8    12    1
    15     9    13    2
    16    10    50    1
    17    10    51    1
    18    10    52    1
    19    11    53    1
    20    11    54    1
    21    11    55    1
    22    12    56    1
    23    12    57    1
    24    12    58    1
    25    13    14    1
    26    13    59    1
    27    14    15    2
    28    14    60    1
    29    15    16    1
    30    15    17    1
    31    16    19    1
    32    16    61    1
    33    16    62    1
    34    17    18    2
    35    17    63    1
    36    18    20    1
    37    18    21    1
    38    19    20    1
    39    19    64    1
    40    19    65    1
    41    20    66    1
    42    20    67    1
    43    21    22    2
    44    21    68    1
    45    22    23    1
    46    22    69    1
    47    23    24    1
    48    23    25    2
    49    24    26    1
    50    24    27    1
    51    24    29    1
    52    25    28    1
    53    25    34    1
    54    26    70    1
    55    26    71    1
    56    26    72    1
    57    27    73    1
    58    27    74    1
    59    27    75    1
    60    28    29   ar
    61    28    30   ar
    62    29    31   ar
    63    30    32   ar
    64    31    33   ar
    65    32    33   ar
    66    34    35    1
    67    34    76    1
    68    34    77    1
    69    35    36    1
    70    35    78    1
    71    35    79    1
    72    36    37    1
    73    36    80    1
    74    36    81    1
    75    37    38    1
    76    37    82    1
    77    37    83    1
    78    38    39    1
    79    38    84    1
    80    38    85    1
    81    39    40    2
    82    39    41   am
    83    41    42    1
    84    41    86    1
    85    42    43    1
    86    42    87    1
    87    42    88    1
    88    43    44    1
    89    43    89    1
    90    43    90    1
    91    44    45    1
    92    44    91    1
    93    44    92    1
    94    45    46    1
    95    45    93    1
    96    45    94    1
    97    46    47    1
    98    46    95    1
    99    46    96    1
   100    47    48    1
   101    47    97    1
   102    47    98    1
   103    48    99    1
   104    48   100    1
   105    48   101    1
   106     3   102    1
   107     1   103   ar
   108   104   103   ar
   109   104   105   ar
   110   105   106   ar
   111   106     6   ar
   112   104   107    1
   113   103   108    1
   114   105   109    1
   115   106   110    1
   116    30   111    1
   117    32   112    1
   118    31   113   ar
   119   113   114   ar
   120   114   115   ar
   121   115   116   ar
   122   116    33   ar
   123   113   117    1
   124   114   118    1
   125   115   119    1
   126   116   120    1
